Displayed atoms
                    3D
 Structure written by MMmdl.
 24 25  0  0  1  0            999 V2000
  145.1030  136.2400  166.9790 N   0  0  0  0  0  0
  141.3870  136.2200  167.2060 C   0  0  0  0  0  0
  142.8650  134.9040  165.7070 C   0  0  0  0  0  0
  146.5510  138.5530  166.9610 C   0  0  0  0  0  0
  146.6580  141.1310  165.9270 C   0  0  0  0  0  0
  146.6860  142.5250  165.3470 C   0  0  0  0  0  0
  147.2180  143.5960  166.2990 C   0  0  0  0  0  0
  147.2740  146.0520  166.8710 C   0  0  0  0  0  0
  145.9030  139.5840  167.6180 C   0  0  0  0  0  0
  142.2590  137.7780  168.8120 C   0  0  0  0  0  0
  141.1710  137.1500  168.2190 C   0  0  0  0  0  0
  142.6820  135.9120  166.7880 C   0  0  0  0  0  0
  143.7790  136.5560  167.3990 C   0  0  0  0  0  0
  147.2600  138.7970  165.7970 C   0  0  0  0  0  0
  147.3080  140.0830  165.2910 C   0  0  0  0  0  0
  146.9110  145.0080  165.8430 C   0  0  0  0  0  0
  145.9620  140.8630  167.0960 C   0  0  0  0  0  0
  143.5490  137.4880  168.4100 C   0  0  0  0  0  0
  143.7970  134.1100  165.7120 O   0  0  0  0  0  0
  141.9590  134.9400  164.7690 O   0  5  0  0  0  0
  146.2780  136.9970  169.0170 O   0  0  0  0  0  0
  147.5560  136.1670  167.0690 O   0  0  0  0  0  0
  146.4570  136.9140  167.5990 S   0  0  0  0  0  0
  140.1644  137.3777  168.5374 *   0  0  0  0  0  0
  1 13  1  0  0  0
  1 23  1  0  0  0
  2 11  1  0  0  0
  2 12  2  0  0  0
  3 12  1  0  0  0
  3 19  2  0  0  0
  3 20  1  0  0  0
  4  9  1  0  0  0
  4 14  2  0  0  0
  4 23  1  0  0  0
  5  6  1  0  0  0
  5 15  2  0  0  0
  5 17  1  0  0  0
  6  7  1  0  0  0
  7 16  1  0  0  0
  8 16  1  0  0  0
  9 17  2  0  0  0
 10 11  2  0  0  0
 10 18  1  0  0  0
 11 24  1  0  0  0
 12 13  1  0  0  0
 13 18  2  0  0  0
 14 15  1  0  0  0
 21 23  2  0  0  0
 22 23  2  0  0  0
M  CHG  1  20  -1
M  ISO  1  11 100
M  END
$$$$
